Version 4
SHEET 1 880 680
SYMBOL 74HC595_symbol -272 -672 R0
SYMATTR InstName 74HC595
SYMBOL seven_segment_symbol 224 -560 R0
SYMATTR InstName X1
SYMBOL pushbutton_symbol 240 -1120 R0
SYMATTR InstName X2
SYMBOL arduino_uno_symbol -352 -1264 R0
SYMATTR InstName X3
